LTspice 24.0.12 for Windows
Circuit: * C:\Users\adwol\OneDrive\Documents\Power Amp\LTspice\Draft3.asc
Start Time: Wed Feb 12 22:10:30 2025
solver = Normal
Maximum thread count: 16
tnom = 27
temp = 27
method = modified trap
Direct Newton iteration for .op point succeeded.
Total elapsed time: 0.033 seconds.

