LTspice 24.0.12 for Windows
Circuit: * C:\Users\adwol\OneDrive\Documents\Power Amp\LTspice\Draft2.asc
Start Time: Thu Feb 13 21:33:42 2025
solver = Normal
Maximum thread count: 16
tnom = 27
temp = 27
method = modified trap
Direct Newton iteration failed to find .op point.  (Use ".option noopiter" to skip.)
Starting Gmin stepping
Gmin = 10
Gmin = 1.07374
vernier = 0.5
vernier = 0.25
vernier = 0.125
vernier = 0.0625
Gmin = 1.08884
vernier = 0.03125
vernier = 0.015625
Gmin = 1.03122
vernier = 0.0078125
vernier = 0.00390625
Gmin = 1.01823
vernier = 0.00520833
vernier = 0.00260417
Gmin = 1.01162
vernier = 0.00347222
vernier = 0.00173611
vernier = 0.00231481
vernier = 0.00115741
Gmin = 1.00877
vernier = 0.00154321
vernier = 0.000771604
Gmin = 1.00673
vernier = 0.00102881
vernier = 0.000514403
vernier = 0.00068587
Gmin = 1.00553
vernier = 0.000514403
vernier = 0.00068587
vernier = 0.000514402
Gmin = 1.00475
Gmin = 0
Gmin stepping failed

Starting source stepping with srcstepmethod=0
Source Step = 3.0303%
Source Step = 7.38636%
Source Step = 9.2803%
Source Step = 10.5587%
Source Step = 11.0322%
Source Step = 11.5057%
Source Step = 11.9792%
Source Step = 12.4527%
vernier = 0.0234375
Source Step = 12.9735%
Source Step = 13.3996%
Source Step = 13.5772%
Source Step = 13.7547%
Source Step = 13.9323%
Source Step = 14.1098%
vernier = 0.00878906
Source Step = 14.314%
Source Step = 14.5804%
Source Step = 14.8467%
Source Step = 15.113%
Source Step = 15.3794%
vernier = 0.0131836
Source Step = 15.6024%
Source Step = 15.7023%
Source Step = 15.8022%
Source Step = 15.9021%
Source Step = 16.0019%
Source Step = 16.1018%
vernier = 0.00494385
Source Step = 16.2516%
Source Step = 16.4014%
Source Step = 16.5513%
Source Step = 16.7011%
Source Step = 16.8509%
vernier = 0.00741577
Source Step = 17.0681%
Source Step = 17.2928%
Source Step = 17.5176%
Source Step = 17.7423%
Source Step = 17.967%
vernier = 0.0111237
Source Step = 18.2816%
Source Step = 18.6187%
Source Step = 18.9558%
Source Step = 19.2928%
Source Step = 19.6299%
vernier = 0.0166855
Source Step = 20.085%
Source Step = 20.5906%
Source Step = 21.0962%
Source Step = 21.6018%
Source Step = 22.1075%
vernier = 0.0250282
Source Step = 22.7648%
Source Step = 23.5232%
Source Step = 24.2816%
Source Step = 25.0401%
Source Step = 25.7985%
vernier = 0.0375423
Source Step = 26.7465%
Source Step = 27.8842%
Source Step = 29.0218%
Source Step = 30.1595%
Source Step = 31.2971%
vernier = 0.0563135
Source Step = 32.6623%
Source Step = 34.3688%
Source Step = 36.0752%
Source Step = 37.7817%
Source Step = 39.4882%
vernier = 0.0844703
Source Step = 41.4506%
Source Step = 44.0103%
Source Step = 46.57%
Source Step = 49.1297%
Source Step = 51.6894%
vernier = 0.126705
Source Step = 54.5051%
Source Step = 58.3447%
Source Step = 62.1842%
Source Step = 66.0238%
Source Step = 69.8633%
vernier = 0.190058
Source Step = 73.8949%
Source Step = 79.6542%
Source Step = 85.4136%
Source Step = 91.1729%
Source Step = 96.9322%
Source stepping succeeded in finding the operating point.

Total elapsed time: 0.594 seconds.

