LTspice 24.0.12 for Windows
Circuit: * C:\Users\adwol\OneDrive\Documents\Power Amp\LTspice\eq filtering.asc
Start Time: Thu Feb 13 22:51:32 2025
solver = Normal
Maximum thread count: 16
tnom = 27
temp = 27
method = modified trap
Direct Newton iteration failed to find .op point.  (Use ".option noopiter" to skip.)
Starting Gmin stepping
Gmin = 10
Gmin = 1.07374
vernier = 0.5
vernier = 0.25
vernier = 0.125
vernier = 0.0625
Gmin = 1.08884
vernier = 0.03125
vernier = 0.015625
Gmin = 1.03122
vernier = 0.0078125
vernier = 0.00390625
Gmin = 1.01823
vernier = 0.00520833
vernier = 0.00260417
Gmin = 1.01162
vernier = 0.00347222
vernier = 0.00173611
vernier = 0.00231481
vernier = 0.00115741
Gmin = 1.00877
vernier = 0.00154321
vernier = 0.000771604
Gmin = 1.00673
vernier = 0.00102881
vernier = 0.000514403
vernier = 0.00068587
Gmin = 1.00553
vernier = 0.000514403
vernier = 0.00068587
vernier = 0.000514402
Gmin = 1.00475
Gmin = 0
Gmin stepping failed

Starting source stepping with srcstepmethod=0
Source Step = 3.0303%
Source Step = 7.38636%
Source Step = 9.2803%
Source Step = 10.7008%
Source Step = 11.1742%
Source Step = 11.6477%
Source Step = 12.1212%
Source Step = 12.5947%
vernier = 0.0234375
Source Step = 13.0919%
Source Step = 13.8021%
Source Step = 14.5123%
Source Step = 15.2225%
Source Step = 15.9328%
Source Step = 16.643%
vernier = 0.0351562
Source Step = 16.8827%
Source Step = 17.149%
Source Step = 17.4154%
Source Step = 17.6817%
Source Step = 17.948%
vernier = 0.0131836
Source Step = 18.3209%
Source Step = 18.7204%
Source Step = 19.1199%
Source Step = 19.5194%
Source Step = 19.9189%
vernier = 0.0197754
Source Step = 20.0575%
Source Step = 20.0949%
Source Step = 20.1324%
Source Step = 20.1699%
Source Step = 20.2073%
vernier = 0.00185394
Source Step = 20.2523%
Source Step = 20.3084%
Source Step = 20.3646%
Source Step = 20.4208%
Source Step = 20.477%
vernier = 0.00278091
Source Step = 20.5416%
Source Step = 20.6258%
Source Step = 20.7101%
Source Step = 20.7944%
Source Step = 20.8787%
vernier = 0.00417137
Source Step = 20.9492%
Source Step = 20.9808%
Source Step = 21.0124%
Source Step = 21.044%
Source Step = 21.0756%
Source Step = 21.1072%
vernier = 0.00156426
Source Step = 21.1546%
Source Step = 21.202%
Source Step = 21.2494%
Source Step = 21.2968%
Source Step = 21.3443%
vernier = 0.0023464
Source Step = 21.413%
Source Step = 21.4841%
Source Step = 21.5552%
Source Step = 21.6263%
Source Step = 21.6974%
vernier = 0.00351959
Source Step = 21.7969%
Source Step = 21.9036%
Source Step = 22.0102%
Source Step = 22.1169%
Source Step = 22.2236%
vernier = 0.00527939
Source Step = 22.3675%
Source Step = 22.5275%
Source Step = 22.6875%
Source Step = 22.8475%
Source Step = 23.0075%
vernier = 0.00791909
Source Step = 23.2154%
Source Step = 23.4554%
Source Step = 23.6954%
Source Step = 23.9354%
Source Step = 24.1753%
vernier = 0.0118786
Source Step = 24.4753%
Source Step = 24.8353%
Source Step = 25.1952%
Source Step = 25.5552%
Source Step = 25.9151%
vernier = 0.0178179
Source Step = 26.3471%
Source Step = 26.887%
Source Step = 27.427%
Source Step = 27.9669%
Source Step = 28.5068%
vernier = 0.0267269
Source Step = 29.1278%
Source Step = 29.9377%
Source Step = 30.7476%
Source Step = 31.5575%
Source Step = 32.3674%
vernier = 0.0400904
Source Step = 33.2583%
Source Step = 34.4731%
Source Step = 35.688%
Source Step = 36.9029%
Source Step = 38.1177%
vernier = 0.0601356
Source Step = 39.3933%
Source Step = 41.2156%
Source Step = 43.0379%
Source Step = 44.8602%
Source Step = 46.6825%
Source Step = 48.5048%
vernier = 0.0902034
Source Step = 51.2382%
Source Step = 53.9717%
Source Step = 56.7051%
Source Step = 59.4385%
Source Step = 62.172%
vernier = 0.135305
Source Step = 66.1354%
Source Step = 70.2356%
Source Step = 74.3357%
Source Step = 78.4359%
Source Step = 82.536%
vernier = 0.202958
Source Step = 88.2763%
Source Step = 94.4265%
Source Step = 100%
Source stepping succeeded in finding the operating point.

Total elapsed time: 0.803 seconds.

