LTspice 24.0.12 for Windows
Circuit: * C:\Users\adwol\OneDrive\Documents\Power Amp\LTspice\peak detector 2.asc
Start Time: Tue Dec 24 16:02:39 2024
solver = Normal
Maximum thread count: 16
tnom = 27
temp = 27
method = modified trap
Early termination of direct N-R iteration.
Direct Newton iteration failed to find .op point.  (Use ".option noopiter" to skip.)
Starting Gmin stepping
Gmin = 10
Gmin = 1.07374
Gmin = 0.115292
Gmin = 0.0123794
Gmin = 0.00132923
Gmin = 0.000142725
Gmin = 1.5325e-05
Gmin = 1.6455e-06
Gmin = 1.76685e-07
vernier = 0.5
vernier = 0.666667
Gmin = 5.3786e-08
vernier = 0.888888
Gmin = 9.12399e-09
vernier = 1
vernier = 0.5
vernier = 0.25
vernier = 0.125
vernier = 0.0625
vernier = 0.03125
Gmin = 4.74062e-09
vernier = 0.0416667
vernier = 0.0208333
Gmin = 4.50082e-09
vernier = 0.0277778
vernier = 0.037037
vernier = 0.0185185
Gmin = 4.2756e-09
vernier = 0.0246913
Gmin = 4.04517e-09
vernier = 0.0329218
vernier = 0.0164609
vernier = 0.0219478
vernier = 0.0109739
Gmin = 3.95212e-09
vernier = 0.0146319
Gmin = 3.82433e-09
vernier = 0.0195092
vernier = 0.0260122
vernier = 0.0130061
Gmin = 3.69027e-09
vernier = 0.0173415
vernier = 0.023122
Gmin = 3.5404e-09
vernier = 0.011561
vernier = 0.0154146
Gmin = 3.45627e-09
vernier = 0.0205529
vernier = 0.0102764
vernier = 0.0137019
Gmin = 3.3745e-09
vernier = 0.0182692
vernier = 0.0091346
Gmin = 3.29467e-09
vernier = 0.0121795
vernier = 0.0162393
Gmin = 3.1944e-09
vernier = 0.0216524
vernier = 0.0108262
Gmin = 3.10925e-09
vernier = 0.0144349
vernier = 0.0192465
vernier = 0.00962327
Gmin = 3.02727e-09
vernier = 0.012831
Gmin = 2.94125e-09
vernier = 0.017108
vernier = 0.00855401
vernier = 0.0114053
Gmin = 2.88525e-09
vernier = 0.0152071
vernier = 0.00760356
Gmin = 2.83368e-09
vernier = 0.0101381
vernier = 0.0135174
Gmin = 2.75355e-09
vernier = 0.0180232
vernier = 0.00901162
vernier = 0.0120155
Gmin = 2.69634e-09
vernier = 0.0160207
Gmin = 2.60364e-09
vernier = 0.0213609
vernier = 0.0106804
vernier = 0.00534022
vernier = 0.00712029
Gmin = 2.57144e-09
vernier = 0.00949371
Gmin = 2.51864e-09
vernier = 0.0126583
vernier = 0.0168777
vernier = 0.00843885
Gmin = 2.4603e-09
vernier = 0.0112518
Gmin = 2.39887e-09
vernier = 0.0150024
vernier = 0.0075012
vernier = 0.0100016
Gmin = 2.35877e-09
vernier = 0.0133355
vernier = 0.00666773
Gmin = 2.32175e-09
vernier = 0.0088903
vernier = 0.0118537
vernier = 0.00592687
Gmin = 2.28425e-09
vernier = 0.00790249
vernier = 0.0105366
Gmin = 2.24145e-09
vernier = 0.0140489
vernier = 0.00702443
Gmin = 2.20055e-09
vernier = 0.0093659
vernier = 0.0124879
vernier = 0.00624394
Gmin = 2.16228e-09
vernier = 0.00832524
Gmin = 2.1233e-09
vernier = 0.0111003
vernier = 0.00555016
vernier = 0.00740021
Gmin = 2.09648e-09
vernier = 0.00986695
Gmin = 2.05051e-09
vernier = 0.0131559
vernier = 0.00657796
vernier = 0.00877062
Gmin = 2.02041e-09
vernier = 0.0116942
vernier = 0.00584708
Gmin = 1.99257e-09
vernier = 0.0077961
vernier = 0.0103948
Gmin = 1.94909e-09
vernier = 0.0138597
vernier = 0.00692986
vernier = 0.00923982
Gmin = 1.91786e-09
vernier = 0.0123198
vernier = 0.00615988
Gmin = 1.88713e-09
vernier = 0.00821317
vernier = 0.0109509
vernier = 0.00547544
Gmin = 1.85832e-09
vernier = 0.00730059
Gmin = 1.8289e-09
vernier = 0.00973411
vernier = 0.00486706
vernier = 0.00648941
Gmin = 1.80863e-09
vernier = 0.00865254
Gmin = 1.77379e-09
vernier = 0.0115367
vernier = 0.00576836
vernier = 0.00769114
Gmin = 1.75094e-09
vernier = 0.0102549
vernier = 0.00512743
Gmin = 1.72976e-09
vernier = 0.00683657
vernier = 0.00911542
Gmin = 1.69661e-09
vernier = 0.0121539
vernier = 0.00607695
vernier = 0.00303847
Gmin = 1.6825e-09
vernier = 0.0040513
vernier = 0.00540173
Gmin = 1.66331e-09
vernier = 0.0072023
vernier = 0.00960307
vernier = 0.00480153
Gmin = 1.64102e-09
vernier = 0.00640204
Gmin = 1.61822e-09
vernier = 0.00853606
vernier = 0.0113814
vernier = 0.0056907
Gmin = 1.59283e-09
vernier = 0.0075876
Gmin = 1.56589e-09
vernier = 0.0101168
vernier = 0.0050584
vernier = 0.00674453
Gmin = 1.54818e-09
vernier = 0.00899271
vernier = 0.00449635
Gmin = 1.53175e-09
vernier = 0.00599514
vernier = 0.00799351
Gmin = 1.50597e-09
vernier = 0.010658
vernier = 0.00532901
vernier = 0.00710534
Gmin = 1.48738e-09
vernier = 0.00947379
vernier = 0.00473689
Gmin = 1.46901e-09
vernier = 0.00631586
vernier = 0.00842114
vernier = 0.00421057
Gmin = 1.45173e-09
vernier = 0.00561409
Gmin = 1.43402e-09
vernier = 0.00748545
vernier = 0.00374273
vernier = 0.0049903
Gmin = 1.42178e-09
vernier = 0.00665373
Gmin = 1.40067e-09
vernier = 0.00887164
vernier = 0.00443582
vernier = 0.00591443
Gmin = 1.38677e-09
vernier = 0.0078859
vernier = 0.00394295
Gmin = 1.37385e-09
vernier = 0.00525726
vernier = 0.00700968
Gmin = 1.35356e-09
vernier = 0.00934624
vernier = 0.00467312
vernier = 0.00623083
Gmin = 1.33889e-09
vernier = 0.00830777
vernier = 0.00415388
Gmin = 1.32438e-09
vernier = 0.00553851
vernier = 0.00738468
Gmin = 1.30588e-09
vernier = 0.00369234
vernier = 0.00492312
Gmin = 1.29508e-09
vernier = 0.00656416
vernier = 0.00875221
Gmin = 1.27489e-09
vernier = 0.0043761
vernier = 0.0058348
Gmin = 1.26332e-09
vernier = 0.00777973
vernier = 0.00388987
vernier = 0.00518649
Gmin = 1.25192e-09
vernier = 0.00691532
Gmin = 1.23314e-09
vernier = 0.00345766
vernier = 0.00461021
Gmin = 1.22358e-09
vernier = 0.00614694
vernier = 0.00307347
Gmin = 1.21469e-09
vernier = 0.00409796
vernier = 0.00546395
Gmin = 1.20067e-09
vernier = 0.00728526
vernier = 0.00364263
vernier = 0.00485684
Gmin = 1.19052e-09
vernier = 0.00647579
vernier = 0.00323789
Gmin = 1.18045e-09
vernier = 0.00431719
vernier = 0.00575625
Gmin = 1.16757e-09
vernier = 0.007675
vernier = 0.0038375
Gmin = 1.15643e-09
vernier = 0.00511666
vernier = 0.00682222
vernier = 0.00341111
Gmin = 1.14552e-09
vernier = 0.00454814
Gmin = 1.13386e-09
vernier = 0.00606419
vernier = 0.00808559
vernier = 0.00404279
vernier = 0.0020214
Gmin = 1.12304e-09
vernier = 0.00269519
Gmin = 1.11625e-09
vernier = 0.00359359
vernier = 0.00479145
Gmin = 1.10495e-09
vernier = 0.0063886
vernier = 0.0031943
vernier = 0.00425907
Gmin = 1.09675e-09
vernier = 0.00567876
Gmin = 1.08321e-09
vernier = 0.00757167
vernier = 0.00378584
vernier = 0.00504778
Gmin = 1.07386e-09
vernier = 0.00673037
vernier = 0.00336519
Gmin = 1.06487e-09
vernier = 0.00448691
vernier = 0.00598255
vernier = 0.00299128
Gmin = 1.05605e-09
vernier = 0.00398837
Gmin = 1.04662e-09
vernier = 0.00531782
vernier = 0.00709043
vernier = 0.00354521
Gmin = 1.03647e-09
vernier = 0.00472695
vernier = 0.0063026
Gmin = 1.02481e-09
vernier = 0.0031513
vernier = 0.00420173
Gmin = 1.01811e-09
vernier = 0.00560231
vernier = 0.00280115
vernier = 0.00373487
Gmin = 1.01148e-09
vernier = 0.00497983
Gmin = 1.00052e-09
vernier = 0.00663977
vernier = 0.00331988
vernier = 0.00442651
Gmin = 9.92944e-10
vernier = 0.00590201
vernier = 0.00295101
Gmin = 9.85649e-10
vernier = 0.00393467
vernier = 0.00524623
vernier = 0.00262311
Gmin = 9.78488e-10
vernier = 0.00349749
Gmin = 9.70821e-10
vernier = 0.00466331
vernier = 0.00621775
vernier = 0.00310887
Gmin = 9.62561e-10
vernier = 0.00414516
vernier = 0.00552688
Gmin = 9.53054e-10
vernier = 0.00276344
vernier = 0.00368459
Gmin = 9.47585e-10
vernier = 0.00491278
vernier = 0.00655038
vernier = 0.00327519
Gmin = 9.38901e-10
vernier = 0.00436692
Gmin = 9.29979e-10
vernier = 0.00582255
vernier = 0.00291128
vernier = 0.0038817
Gmin = 9.23798e-10
vernier = 0.0051756
vernier = 0.0025878
Gmin = 9.17843e-10
vernier = 0.0034504
vernier = 0.00460053
Gmin = 9.09375e-10
vernier = 0.00613404
vernier = 0.00306702
Gmin = 9.02779e-10
vernier = 0.00408936
vernier = 0.00545248
vernier = 0.00272624
Gmin = 8.96039e-10
vernier = 0.00363498
vernier = 0.00484665
Gmin = 8.88273e-10
vernier = 0.00242332
vernier = 0.0032311
Gmin = 8.83801e-10
vernier = 0.00430813
vernier = 0.00574417
vernier = 0.00287208
Gmin = 8.76694e-10
vernier = 0.00382944
Gmin = 8.69384e-10
vernier = 0.00510592
vernier = 0.00255296
vernier = 0.00340395
Gmin = 8.64314e-10
vernier = 0.0045386
Gmin = 8.55537e-10
vernier = 0.00605146
vernier = 0.00302573
vernier = 0.00403431
Gmin = 8.49735e-10
vernier = 0.00537907
vernier = 0.00268954
Gmin = 8.44327e-10
vernier = 0.00358605
vernier = 0.0047814
vernier = 0.0023907
Gmin = 8.38797e-10
vernier = 0.0031876
vernier = 0.00425013
Gmin = 8.32418e-10
vernier = 0.00566684
vernier = 0.00283342
Gmin = 8.26252e-10
vernier = 0.00377789
vernier = 0.00503719
vernier = 0.00251859
Gmin = 8.20423e-10
vernier = 0.00335812
Gmin = 8.1442e-10
vernier = 0.0044775
vernier = 0.00223875
vernier = 0.002985
Gmin = 8.10254e-10
vernier = 0.00397999
Gmin = 8.03034e-10
vernier = 0.00530666
vernier = 0.00265333
vernier = 0.00353777
Gmin = 7.98256e-10
vernier = 0.00471703
vernier = 0.00235851
Gmin = 7.93799e-10
vernier = 0.00314468
vernier = 0.00419291
Gmin = 7.86761e-10
vernier = 0.00559055
vernier = 0.00279527
vernier = 0.00372703
Gmin = 7.81648e-10
vernier = 0.00496937
vernier = 0.00248469
Gmin = 7.76569e-10
vernier = 0.00331291
vernier = 0.00441722
vernier = 0.00220861
Gmin = 7.71762e-10
vernier = 0.00294481
Gmin = 7.66808e-10
vernier = 0.00392641
vernier = 0.00523522
vernier = 0.00261761
Gmin = 7.61248e-10
vernier = 0.00349014
Gmin = 7.55296e-10
vernier = 0.00465352
vernier = 0.00232676
vernier = 0.00310235
Gmin = 7.51353e-10
vernier = 0.00413646
vernier = 0.00206823
Gmin = 7.47673e-10
vernier = 0.00275764
vernier = 0.00367685
Gmin = 7.41856e-10
vernier = 0.00490247
vernier = 0.00245124
vernier = 0.00326831
Gmin = 7.37627e-10
vernier = 0.00435775
vernier = 0.00217887
Gmin = 7.33421e-10
vernier = 0.00290517
vernier = 0.00387355
Gmin = 7.28028e-10
vernier = 0.00516474
vernier = 0.00258237
Gmin = 7.23345e-10
vernier = 0.00344316
vernier = 0.00459087
vernier = 0.00229544
Gmin = 7.18743e-10
vernier = 0.00306058
Gmin = 7.13813e-10
vernier = 0.00408078
vernier = 0.00204039
vernier = 0.00272052
Gmin = 7.10544e-10
vernier = 0.00362735
vernier = 0.00483647
Gmin = 7.04399e-10
vernier = 0.00241824
vernier = 0.00322431
Gmin = 7.0086e-10
vernier = 0.00429908
vernier = 0.00214954
vernier = 0.00286605
Gmin = 6.97355e-10
vernier = 0.00382141
vernier = 0.0019107
Gmin = 6.93867e-10
vernier = 0.0025476
vernier = 0.0033968
Gmin = 6.8939e-10
vernier = 0.00452907
vernier = 0.00226453
Gmin = 6.85499e-10
vernier = 0.00301938
vernier = 0.00402584
vernier = 0.00201292
Gmin = 6.81674e-10
vernier = 0.00268389
Gmin = 6.77571e-10
vernier = 0.00357852
vernier = 0.00477136
vernier = 0.00238568
Gmin = 6.73142e-10
vernier = 0.00318091
vernier = 0.00424121
Gmin = 6.68034e-10
vernier = 0.0021206
vernier = 0.00282747
Gmin = 6.6509e-10
vernier = 0.00376996
vernier = 0.00188498
vernier = 0.00251331
Gmin = 6.62172e-10
vernier = 0.00335107
Gmin = 6.57337e-10
vernier = 0.0044681
vernier = 0.00223405
vernier = 0.00297873
Gmin = 6.53981e-10
vernier = 0.00397164
vernier = 0.00198582
Gmin = 6.50744e-10
vernier = 0.00264776
vernier = 0.00353034
vernier = 0.00176517
Gmin = 6.47558e-10
vernier = 0.00235356
Gmin = 6.44139e-10
vernier = 0.00313808
vernier = 0.00418411
vernier = 0.00209205
Gmin = 6.40445e-10
vernier = 0.00278941
vernier = 0.00371921
Gmin = 6.36181e-10
vernier = 0.0018596
vernier = 0.00247947
Gmin = 6.33721e-10
vernier = 0.00330596
vernier = 0.00440794
vernier = 0.00220397
Gmin = 6.29807e-10
vernier = 0.00293863
Gmin = 6.25772e-10
vernier = 0.00391817
vernier = 0.00195909
vernier = 0.00261211
Gmin = 6.2297e-10
vernier = 0.00348282
vernier = 0.00174141
Gmin = 6.20265e-10
vernier = 0.00232188
vernier = 0.00309584
Gmin = 6.16407e-10
vernier = 0.00412778
vernier = 0.00206389
Gmin = 6.13394e-10
vernier = 0.00275185
vernier = 0.00366914
vernier = 0.00183457
Gmin = 6.10308e-10
vernier = 0.00244609
vernier = 0.00326145
Gmin = 6.06743e-10
vernier = 0.00163073
vernier = 0.0021743
Gmin = 6.04686e-10
vernier = 0.00289907
vernier = 0.00386542
vernier = 0.00193271
Gmin = 6.01409e-10
vernier = 0.00257695
Gmin = 5.98029e-10
vernier = 0.00343593
vernier = 0.00171796
vernier = 0.00229062
Gmin = 5.9568e-10
vernier = 0.00305416
Gmin = 5.91602e-10
vernier = 0.00407221
vernier = 0.0020361
vernier = 0.00271481
Gmin = 5.88899e-10
vernier = 0.00361974
vernier = 0.00180987
Gmin = 5.86374e-10
vernier = 0.00241316
vernier = 0.00321754
vernier = 0.00160877
Gmin = 5.83786e-10
vernier = 0.00214503
vernier = 0.00286004
Gmin = 5.80794e-10
vernier = 0.00381338
vernier = 0.00190669
Gmin = 5.77896e-10
vernier = 0.00254226
vernier = 0.00338967
vernier = 0.00169484
Gmin = 5.75148e-10
vernier = 0.00225978
Gmin = 5.72313e-10
vernier = 0.00301304
vernier = 0.00401739
vernier = 0.00200869
Gmin = 5.69126e-10
vernier = 0.00267826
Gmin = 5.65707e-10
vernier = 0.00357101
vernier = 0.0017855
vernier = 0.00238067
Gmin = 5.6344e-10
vernier = 0.00317423
vernier = 0.00158711
Gmin = 5.61321e-10
vernier = 0.00211615
vernier = 0.00282153
Gmin = 5.57966e-10
vernier = 0.00376205
vernier = 0.00188102
vernier = 0.00250803
Gmin = 5.55523e-10
vernier = 0.00334404
vernier = 0.00167202
Gmin = 5.53091e-10
vernier = 0.00222936
vernier = 0.00297248
vernier = 0.00148624
Gmin = 5.50785e-10
vernier = 0.00198165
Gmin = 5.48403e-10
vernier = 0.0026422
vernier = 0.00352293
vernier = 0.00176147
Gmin = 5.45723e-10
vernier = 0.00234862
Gmin = 5.42848e-10
vernier = 0.0031315
vernier = 0.00156575
vernier = 0.00208766
Gmin = 5.40939e-10
vernier = 0.00278355
vernier = 0.0037114
Gmin = 5.37345e-10
vernier = 0.0018557
vernier = 0.00247427
Gmin = 5.35272e-10
vernier = 0.00329902
vernier = 0.00164951
vernier = 0.00219935
Gmin = 5.33216e-10
vernier = 0.00293246
vernier = 0.00146623
Gmin = 5.31169e-10
vernier = 0.00195497
vernier = 0.00260663
Gmin = 5.28536e-10
vernier = 0.00347551
vernier = 0.00173775
Gmin = 5.26246e-10
vernier = 0.002317
vernier = 0.00308934
vernier = 0.00154467
Gmin = 5.23991e-10
vernier = 0.00205956
Gmin = 5.21569e-10
vernier = 0.00274608
vernier = 0.00366143
vernier = 0.00183072
Gmin = 5.1895e-10
vernier = 0.00244096
vernier = 0.00325461
Gmin = 5.15925e-10
vernier = 0.0016273
vernier = 0.00216974
Gmin = 5.14179e-10
vernier = 0.00289298
vernier = 0.00144649
vernier = 0.00192865
Gmin = 5.12447e-10
vernier = 0.00257154
Gmin = 5.09573e-10
vernier = 0.00342872
vernier = 0.00171436
vernier = 0.00228581
Gmin = 5.07576e-10
vernier = 0.00304775
vernier = 0.00152387
Gmin = 5.05646e-10
vernier = 0.00203183
vernier = 0.00270911
Gmin = 5.02894e-10
vernier = 0.00361214
vernier = 0.00180607
Gmin = 5.00742e-10
vernier = 0.00240809
vernier = 0.00321079
vernier = 0.0016054
Gmin = 4.98536e-10
vernier = 0.00214053
vernier = 0.00285403
Gmin = 4.95987e-10
vernier = 0.00142702
vernier = 0.00190269
Gmin = 4.94515e-10
vernier = 0.00253692
vernier = 0.00338256
vernier = 0.00169128
Gmin = 4.92169e-10
vernier = 0.00225504
Gmin = 4.89748e-10
vernier = 0.00300672
vernier = 0.00150336
vernier = 0.00200448
Gmin = 4.88064e-10
vernier = 0.00267264
vernier = 0.00133632
Gmin = 4.86436e-10
vernier = 0.00178176
vernier = 0.00237567
Gmin = 4.84113e-10
vernier = 0.00316757
vernier = 0.00158378
Gmin = 4.82296e-10
vernier = 0.00211171
vernier = 0.00281561
vernier = 0.00140781
Gmin = 4.80433e-10
vernier = 0.00187707
vernier = 0.00250276
Gmin = 4.78278e-10
vernier = 0.00333702
vernier = 0.00166851
Gmin = 4.76188e-10
vernier = 0.00222468
vernier = 0.00296624
vernier = 0.00148312
Gmin = 4.74206e-10
vernier = 0.00197749
Gmin = 4.7216e-10
vernier = 0.00263665
vernier = 0.00131833
vernier = 0.00175777
Gmin = 4.70736e-10
vernier = 0.00234369
Gmin = 4.68261e-10
vernier = 0.00312492
vernier = 0.00156246
vernier = 0.00208328
Gmin = 4.66618e-10
vernier = 0.00277771
vernier = 0.00138885
Gmin = 4.65082e-10
vernier = 0.0018518
vernier = 0.00246907
Gmin = 4.62648e-10
vernier = 0.00329209
vernier = 0.00164605
vernier = 0.00219473
Gmin = 4.60875e-10
vernier = 0.0029263
vernier = 0.00146315
Gmin = 4.59109e-10
vernier = 0.00195087
vernier = 0.00260116
vernier = 0.00130058
Gmin = 4.57433e-10
vernier = 0.00173411
Gmin = 4.55702e-10
vernier = 0.00231214
vernier = 0.00308285
vernier = 0.00154143
Gmin = 4.53753e-10
vernier = 0.00205523
Gmin = 4.5166e-10
vernier = 0.00274031
vernier = 0.00137016
vernier = 0.00182687
Gmin = 4.5027e-10
vernier = 0.00243583
vernier = 0.00324777
Gmin = 4.4765e-10
vernier = 0.00162389
vernier = 0.00216518
Gmin = 4.46139e-10
vernier = 0.00288691
vernier = 0.00144345
vernier = 0.00192461
Gmin = 4.44639e-10
vernier = 0.00256614
vernier = 0.00128307
Gmin = 4.43144e-10
vernier = 0.00171076
vernier = 0.00228101
Gmin = 4.41222e-10
vernier = 0.00304135
vernier = 0.00152067
Gmin = 4.39548e-10
vernier = 0.00202757
vernier = 0.00270342
vernier = 0.00135171
Gmin = 4.37899e-10
vernier = 0.00180228
Gmin = 4.36128e-10
vernier = 0.00240304
vernier = 0.00320405
vernier = 0.00160203
Gmin = 4.34211e-10
vernier = 0.00213603
vernier = 0.00284804
Gmin = 4.31995e-10
vernier = 0.00142402
vernier = 0.0018987
Gmin = 4.30716e-10
vernier = 0.00253159
vernier = 0.0012658
vernier = 0.00168773
Gmin = 4.29446e-10
vernier = 0.0022503
Gmin = 4.27337e-10
vernier = 0.0030004
vernier = 0.0015002
vernier = 0.00200027
Gmin = 4.25871e-10
vernier = 0.00266702
vernier = 0.00133351
Gmin = 4.24454e-10
vernier = 0.00177802
vernier = 0.00237069
vernier = 0.00118534
Gmin = 4.23057e-10
vernier = 0.00158046
Gmin = 4.21556e-10
vernier = 0.00210728
vernier = 0.0028097
vernier = 0.00140485
Gmin = 4.19931e-10
vernier = 0.00187313
vernier = 0.00249751
Gmin = 4.18051e-10
vernier = 0.00124876
vernier = 0.00166501
Gmin = 4.16965e-10
vernier = 0.00222001
vernier = 0.00111
vernier = 0.00148001
Gmin = 4.15886e-10
vernier = 0.00197334
Gmin = 4.14095e-10
vernier = 0.00263112
vernier = 0.00131556
vernier = 0.00175408
Gmin = 4.12849e-10
vernier = 0.00233877
vernier = 0.00116939
Gmin = 4.11644e-10
vernier = 0.00155918
vernier = 0.00207891
Gmin = 4.09923e-10
vernier = 0.00277188
vernier = 0.00138594
Gmin = 4.08576e-10
vernier = 0.00184792
vernier = 0.00246389
vernier = 0.00123194
Gmin = 4.07195e-10
vernier = 0.00164259
vernier = 0.00219012
Gmin = 4.05596e-10
vernier = 0.00292016
vernier = 0.00146008
Gmin = 4.04045e-10
vernier = 0.00194677
vernier = 0.0025957
vernier = 0.00129785
Gmin = 4.02573e-10
vernier = 0.00173046
Gmin = 4.01052e-10
vernier = 0.00230729
vernier = 0.00115364
vernier = 0.00153819
Gmin = 3.99993e-10
vernier = 0.00205092
Gmin = 3.98152e-10
vernier = 0.00273456
vernier = 0.00136728
vernier = 0.00182304
Gmin = 3.9693e-10
vernier = 0.00243072
vernier = 0.00121536
Gmin = 3.95786e-10
vernier = 0.00162048
vernier = 0.00216064
Gmin = 3.93973e-10
vernier = 0.00288085
vernier = 0.00144042
vernier = 0.00192057
Gmin = 3.92652e-10
vernier = 0.00256075
vernier = 0.00128038
Gmin = 3.91334e-10
vernier = 0.00170717
vernier = 0.00227622
vernier = 0.00113811
Gmin = 3.90084e-10
vernier = 0.00151748
Gmin = 3.88791e-10
vernier = 0.00202331
vernier = 0.00269774
vernier = 0.00134887
vernier = 0.000674436
Gmin = 3.87467e-10
vernier = 0.000505827
vernier = 0.000674436
Gmin = 3.86961e-10
vernier = 0.000899248
vernier = 0.001199
Gmin = 3.86077e-10
vernier = 0.00159866
Gmin = 3.84691e-10
vernier = 0.00213155
vernier = 0.00106577
vernier = 0.00142103
Gmin = 3.8377e-10
vernier = 0.00189471
vernier = 0.00252628
Gmin = 3.82032e-10
vernier = 0.00126314
vernier = 0.00168419
Gmin = 3.81029e-10
vernier = 0.00224558
vernier = 0.00112279
vernier = 0.00149705
Gmin = 3.80032e-10
vernier = 0.00199607
Gmin = 3.78376e-10
vernier = 0.00266143
vernier = 0.00133071
vernier = 0.00177428
Gmin = 3.77224e-10
vernier = 0.00236571
vernier = 0.00118286
Gmin = 3.76111e-10
vernier = 0.00157714
vernier = 0.00210285
vernier = 0.00105143
Gmin = 3.75013e-10
vernier = 0.0014019
Gmin = 3.73832e-10
vernier = 0.0018692
vernier = 0.00249227
vernier = 0.00124613
Gmin = 3.72553e-10
vernier = 0.00166151
vernier = 0.00221535
Gmin = 3.71074e-10
vernier = 0.00110767
vernier = 0.0014769
Gmin = 3.70218e-10
vernier = 0.0019692
vernier = 0.0026256
vernier = 0.0013128
Gmin = 3.68854e-10
vernier = 0.0017504
Gmin = 3.67445e-10
vernier = 0.00233386
vernier = 0.00116693
vernier = 0.00155591
Gmin = 3.66464e-10
vernier = 0.00207454
vernier = 0.00103727
Gmin = 3.65515e-10
vernier = 0.00138303
vernier = 0.00184404
Gmin = 3.64159e-10
vernier = 0.00245872
vernier = 0.00122936
Gmin = 3.63098e-10
vernier = 0.00163914
vernier = 0.00218552
vernier = 0.00109276
Gmin = 3.62008e-10
vernier = 0.00145702
vernier = 0.00194269
Gmin = 3.60747e-10
vernier = 0.00259025
vernier = 0.00129512
Gmin = 3.59523e-10
vernier = 0.00172683
vernier = 0.00230244
vernier = 0.00115122
Gmin = 3.58361e-10
vernier = 0.00153496
Gmin = 3.5716e-10
vernier = 0.00204661
vernier = 0.00102331
vernier = 0.00136441
Gmin = 3.56323e-10
vernier = 0.00181921
Gmin = 3.54868e-10
vernier = 0.00242561
vernier = 0.00121281
vernier = 0.00161708
Gmin = 3.53901e-10
vernier = 0.0021561
vernier = 0.00107805
Gmin = 3.52997e-10
vernier = 0.0014374
vernier = 0.00191653
Gmin = 3.51562e-10
vernier = 0.00255538
vernier = 0.00127769
vernier = 0.00170358
Gmin = 3.50516e-10
vernier = 0.00227145
vernier = 0.00113572
Gmin = 3.49473e-10
vernier = 0.0015143
vernier = 0.00201906
vernier = 0.00100953
Gmin = 3.48482e-10
vernier = 0.00134604
Gmin = 3.47457e-10
vernier = 0.00179472
vernier = 0.00239296
vernier = 0.00119648
Gmin = 3.46303e-10
vernier = 0.00159531
Gmin = 3.45063e-10
vernier = 0.00212707
vernier = 0.00106354
vernier = 0.00141805
Gmin = 3.44238e-10
vernier = 0.00189073
vernier = 0.00252098
Gmin = 3.42683e-10
vernier = 0.00126049
vernier = 0.00168065
Gmin = 3.41784e-10
vernier = 0.00224087
vernier = 0.00112043
vernier = 0.00149391
Gmin = 3.40892e-10
vernier = 0.00199188
vernier = 0.00099594
Gmin = 3.40002e-10
vernier = 0.00132792
vernier = 0.00177056
Gmin = 3.38857e-10
vernier = 0.00236074
vernier = 0.00118037
Gmin = 3.37858e-10
vernier = 0.00157383
vernier = 0.00209844
vernier = 0.00104922
Gmin = 3.36874e-10
vernier = 0.00139896
Gmin = 3.35816e-10
vernier = 0.00186528
vernier = 0.00248704
vernier = 0.00124352
Gmin = 3.34669e-10
vernier = 0.00165802
vernier = 0.0022107
Gmin = 3.33343e-10
vernier = 0.00110535
vernier = 0.0014738
Gmin = 3.32576e-10
vernier = 0.00196506
vernier = 0.000982532
vernier = 0.00131004
Gmin = 3.31815e-10
vernier = 0.00174672
Gmin = 3.3055e-10
vernier = 0.00232896
vernier = 0.00116448
vernier = 0.00155264
Gmin = 3.29669e-10
vernier = 0.00207019
vernier = 0.00103509
Gmin = 3.28817e-10
vernier = 0.00138012
vernier = 0.00184017
vernier = 0.000920083
Gmin = 3.27977e-10
vernier = 0.00122678
Gmin = 3.27073e-10
vernier = 0.0016357
vernier = 0.00218094
vernier = 0.00109047
Gmin = 3.26094e-10
vernier = 0.00145396
vernier = 0.00193861
Gmin = 3.2496e-10
vernier = 0.000969304
vernier = 0.00129241
Gmin = 3.24304e-10
vernier = 0.00172321
vernier = 0.00229761
vernier = 0.0011488
Gmin = 3.23258e-10
vernier = 0.00153174
Gmin = 3.22177e-10
vernier = 0.00204232
vernier = 0.00102116
vernier = 0.00136154
Gmin = 3.21424e-10
vernier = 0.00181539
vernier = 0.000907696
Gmin = 3.20696e-10
vernier = 0.00121026
vernier = 0.00161368
Gmin = 3.19655e-10
vernier = 0.00215157
vernier = 0.00107579
Gmin = 3.18839e-10
vernier = 0.00143438
vernier = 0.00191251
vernier = 0.000956255
Gmin = 3.18002e-10
vernier = 0.00127501
vernier = 0.00170001
Gmin = 3.17032e-10
vernier = 0.00226668
vernier = 0.00113334
Gmin = 3.16091e-10
vernier = 0.00151112
vernier = 0.00201482
vernier = 0.00100741
Gmin = 3.15196e-10
vernier = 0.00134321
Gmin = 3.14272e-10
vernier = 0.00179095
vernier = 0.000895476
vernier = 0.00119397
Gmin = 3.13628e-10
vernier = 0.00159196
Gmin = 3.12506e-10
vernier = 0.00212261
vernier = 0.0010613
vernier = 0.00141507
Gmin = 3.11761e-10
vernier = 0.00188676
vernier = 0.000943381
Gmin = 3.11064e-10
vernier = 0.00125784
vernier = 0.00167712
vernier = 0.000838561
Gmin = 3.10217e-10
vernier = 0.00111808
Gmin = 3.09459e-10
vernier = 0.00149077
vernier = 0.0019877
vernier = 0.000993849
Gmin = 3.08605e-10
vernier = 0.00132513
Gmin = 3.07687e-10
vernier = 0.00176684
vernier = 0.000883421
vernier = 0.00117789
Gmin = 3.07076e-10
vernier = 0.00157053
vernier = 0.00209403
Gmin = 3.05923e-10
vernier = 0.00104702
vernier = 0.00139602
Gmin = 3.05256e-10
vernier = 0.00186136
vernier = 0.000930681
vernier = 0.00124091
Gmin = 3.04594e-10
vernier = 0.00165454
Gmin = 3.03494e-10
vernier = 0.00220606
vernier = 0.00110303
vernier = 0.0014707
Gmin = 3.02728e-10
vernier = 0.00196094
vernier = 0.000980469
Gmin = 3.01987e-10
vernier = 0.00130729
vernier = 0.00174306
vernier = 0.000871528
Gmin = 3.01256e-10
vernier = 0.00116204
Gmin = 3.00469e-10
vernier = 0.00154938
vernier = 0.00206584
vernier = 0.00103292
vernier = 0.000516461
Gmin = 2.99733e-10
vernier = 0.000688614
Gmin = 2.99269e-10
vernier = 0.000918152
vernier = 0.0012242
Gmin = 2.98492e-10
vernier = 0.00163227
vernier = 0.00217636
vernier = 0.00108818
Gmin = 2.9758e-10
vernier = 0.0014509
Gmin = 2.96637e-10
vernier = 0.00193454
vernier = 0.00096727
vernier = 0.00128969
Gmin = 2.9598e-10
vernier = 0.00171959
vernier = 0.000859795
Gmin = 2.95345e-10
vernier = 0.00114639
vernier = 0.00152852
Gmin = 2.94437e-10
vernier = 0.00203803
vernier = 0.00101902
Gmin = 2.93725e-10
vernier = 0.00135869
vernier = 0.00181158
vernier = 0.000905791
Gmin = 2.92994e-10
vernier = 0.00120772
vernier = 0.00161029
Gmin = 2.92148e-10
vernier = 0.00214706
vernier = 0.00107353
Gmin = 2.91326e-10
vernier = 0.00143137
vernier = 0.0019085
vernier = 0.000954248
Gmin = 2.90545e-10
vernier = 0.00127233
Gmin = 2.89738e-10
vernier = 0.00169644
vernier = 0.00084822
vernier = 0.00113096
Gmin = 2.89175e-10
vernier = 0.00150795
Gmin = 2.88196e-10
vernier = 0.00201059
vernier = 0.0010053
vernier = 0.0013404
Gmin = 2.87545e-10
vernier = 0.00178719
vernier = 0.000893597
Gmin = 2.86935e-10
vernier = 0.00119146
vernier = 0.00158862
Gmin = 2.85969e-10
vernier = 0.00211815
vernier = 0.00105908
vernier = 0.0014121
Gmin = 2.85263e-10
vernier = 0.0018828
vernier = 0.000941401
Gmin = 2.84559e-10
vernier = 0.0012552
vernier = 0.0016736
vernier = 0.000836801
Gmin = 2.8389e-10
vernier = 0.00111573
Gmin = 2.83198e-10
vernier = 0.00148764
vernier = 0.00198353
vernier = 0.000991763
Gmin = 2.82418e-10
vernier = 0.00132235
Gmin = 2.81579e-10
vernier = 0.00176313
vernier = 0.000881567
vernier = 0.00117542
Gmin = 2.81021e-10
vernier = 0.00156723
vernier = 0.00208964
Gmin = 2.79968e-10
vernier = 0.00104482
vernier = 0.00139309
Gmin = 2.7936e-10
vernier = 0.00185745
vernier = 0.000928727
vernier = 0.0012383
Gmin = 2.78755e-10
vernier = 0.00165107
vernier = 0.000825535
Gmin = 2.78152e-10
vernier = 0.00110071
vernier = 0.00146762
Gmin = 2.77375e-10
vernier = 0.00195682
vernier = 0.000978411
Gmin = 2.76697e-10
vernier = 0.00130455
vernier = 0.0017394
vernier = 0.000869698
Gmin = 2.76029e-10
vernier = 0.0011596
Gmin = 2.7531e-10
vernier = 0.00154613
vernier = 0.00206151
vernier = 0.00103075
Gmin = 2.74531e-10
vernier = 0.00137434
vernier = 0.00183245
Gmin = 2.73628e-10
vernier = 0.000916224
vernier = 0.00122163
Gmin = 2.73107e-10
vernier = 0.00162884
vernier = 0.000814421
vernier = 0.00108589
Gmin = 2.72588e-10
vernier = 0.00144786
Gmin = 2.71726e-10
vernier = 0.00193048
vernier = 0.000965239
vernier = 0.00128699
Gmin = 2.71126e-10
vernier = 0.00171598
vernier = 0.00085799
Gmin = 2.70545e-10
vernier = 0.00114399
vernier = 0.00152531
Gmin = 2.69715e-10
vernier = 0.00203375
vernier = 0.00101688
Gmin = 2.69064e-10
vernier = 0.00135583
vernier = 0.00180778
vernier = 0.00090389
Gmin = 2.68396e-10
vernier = 0.00120519
vernier = 0.00160691
Gmin = 2.67623e-10
vernier = 0.000803457
vernier = 0.00107128
Gmin = 2.67175e-10
vernier = 0.00142837
vernier = 0.00190449
vernier = 0.000952245
Gmin = 2.66461e-10
vernier = 0.00126966
Gmin = 2.65722e-10
vernier = 0.00169288
vernier = 0.000846439
vernier = 0.00112859
Gmin = 2.65207e-10
vernier = 0.00150478
Gmin = 2.64311e-10
vernier = 0.00200637
vernier = 0.00100319
vernier = 0.00133758
Gmin = 2.63715e-10
vernier = 0.00178344
vernier = 0.000891721
Gmin = 2.63157e-10
vernier = 0.00118896
vernier = 0.00158528
vernier = 0.00079264
Gmin = 2.62584e-10
vernier = 0.00105685
vernier = 0.00140914
Gmin = 2.6192e-10
vernier = 0.00187885
vernier = 0.000939425
Gmin = 2.61275e-10
vernier = 0.00125257
vernier = 0.00167009
vernier = 0.000835044
Gmin = 2.60662e-10
vernier = 0.00111339
Gmin = 2.60028e-10
vernier = 0.00148452
vernier = 0.000742261
vernier = 0.000989681
Gmin = 2.59586e-10
vernier = 0.00131957
Gmin = 2.58817e-10
vernier = 0.00175943
vernier = 0.000879716
vernier = 0.00117295
Gmin = 2.58305e-10
vernier = 0.00156394
vernier = 0.000781969
Gmin = 2.57826e-10
vernier = 0.00104263
vernier = 0.00139017
Gmin = 2.57065e-10
vernier = 0.00185356
vernier = 0.000926778
vernier = 0.0012357
Gmin = 2.5651e-10
vernier = 0.0016476
vernier = 0.000823802
Gmin = 2.55956e-10
vernier = 0.0010984
vernier = 0.00146454
Gmin = 2.55243e-10
vernier = 0.00195271
vernier = 0.000976357
Gmin = 2.54621e-10
vernier = 0.00130181
vernier = 0.00173575
vernier = 0.000867873
Gmin = 2.54007e-10
vernier = 0.00115716
Gmin = 2.53346e-10
vernier = 0.00154288
vernier = 0.000771442
vernier = 0.00102859
Gmin = 2.52907e-10
vernier = 0.00137145
vernier = 0.0018286
Gmin = 2.52078e-10
vernier = 0.000914301
vernier = 0.00121907
Gmin = 2.51598e-10
vernier = 0.00162542
vernier = 0.000812712
vernier = 0.00108362
Gmin = 2.51121e-10
vernier = 0.00144482
vernier = 0.00072241
Gmin = 2.50646e-10
vernier = 0.000963213
vernier = 0.00128428
Gmin = 2.50033e-10
vernier = 0.00171238
vernier = 0.000856189
Gmin = 2.49498e-10
vernier = 0.00114158
vernier = 0.00152211
vernier = 0.000761056
Gmin = 2.48971e-10
vernier = 0.00101474
Gmin = 2.48403e-10
vernier = 0.00135299
vernier = 0.00180398
vernier = 0.000901992
Gmin = 2.47788e-10
vernier = 0.00120266
vernier = 0.00160354
Gmin = 2.47075e-10
vernier = 0.00080177
vernier = 0.00106903
Gmin = 2.46663e-10
vernier = 0.00142537
vernier = 0.00190049
vernier = 0.000950246
Gmin = 2.46004e-10
vernier = 0.00126699
Gmin = 2.45324e-10
vernier = 0.00168932
vernier = 0.000844662
vernier = 0.00112622
Gmin = 2.44849e-10
vernier = 0.00150162
vernier = 0.000750811
Gmin = 2.4439e-10
vernier = 0.00100108
vernier = 0.00133477
Gmin = 2.43734e-10
vernier = 0.0017797
vernier = 0.000889849
Gmin = 2.43219e-10
vernier = 0.00118646
vernier = 0.00158195
vernier = 0.000790976
Gmin = 2.42691e-10
vernier = 0.00105464
vernier = 0.00140618
Gmin = 2.42078e-10
vernier = 0.00187491
vernier = 0.000937453
Gmin = 2.41484e-10
vernier = 0.00124994
vernier = 0.00166658
vernier = 0.000833291
Gmin = 2.40918e-10
vernier = 0.00111105
Gmin = 2.40334e-10
vernier = 0.00148141
vernier = 0.000740703
vernier = 0.000987603
Gmin = 2.39926e-10
vernier = 0.0013168
Gmin = 2.39216e-10
vernier = 0.00175574
vernier = 0.000877869
vernier = 0.00117049
Gmin = 2.38744e-10
vernier = 0.00156066
vernier = 0.000780328
Gmin = 2.38302e-10
vernier = 0.00104044
vernier = 0.00138725
Gmin = 2.37601e-10
vernier = 0.00184966
vernier = 0.000924832
vernier = 0.00123311
Gmin = 2.37089e-10
vernier = 0.00164415
vernier = 0.000822073
Gmin = 2.36578e-10
vernier = 0.0010961
vernier = 0.00146146
vernier = 0.000730731
Gmin = 2.36092e-10
vernier = 0.000974308
Gmin = 2.3559e-10
vernier = 0.00129908
vernier = 0.0017321
vernier = 0.000866051
Gmin = 2.35023e-10
vernier = 0.00115473
Gmin = 2.34413e-10
vernier = 0.00153965
vernier = 0.000769823
vernier = 0.00102643
Gmin = 2.34008e-10
vernier = 0.00136857
vernier = 0.00182476
Gmin = 2.33242e-10
vernier = 0.000912382
vernier = 0.00121651
Gmin = 2.32799e-10
vernier = 0.00162201
vernier = 0.000811006
vernier = 0.000405503
Gmin = 0
Gmin stepping failed

Starting source stepping with srcstepmethod=0
Source Step = 3.0303%
Source Step = 9.65909%
Source Step = 11.553%
Source Step = 12.4053%
Source Step = 12.8788%
Source Step = 13.3523%
Source Step = 13.8258%
Source Step = 14.2992%
vernier = 0.0234375
Source Step = 14.8911%
Source Step = 15.6013%
Source Step = 16.3116%
Source Step = 16.8975%
Source Step = 17.075%
Source Step = 17.2526%
Source Step = 17.4302%
Source Step = 17.6077%
Source Step = 17.7853%
vernier = 0.00878906
Source Step = 18.0516%
Source Step = 18.3179%
Source Step = 18.5843%
Source Step = 18.8506%
Source Step = 19.117%
vernier = 0.0131836
Source Step = 19.5031%
Source Step = 19.9026%
Source Step = 20.3021%
Source Step = 20.422%
Source Step = 20.5219%
Source Step = 20.6217%
Source Step = 20.7216%
Source Step = 20.8215%
vernier = 0.00494385
Source Step = 20.9563%
Source Step = 21.1061%
Source Step = 21.256%
Source Step = 21.4058%
Source Step = 21.5556%
vernier = 0.00741577
Source Step = 21.7503%
Source Step = 21.9751%
Source Step = 22.1998%
Source Step = 22.4245%
Source Step = 22.6492%
vernier = 0.0111237
Source Step = 22.7953%
Source Step = 22.8796%
Source Step = 22.9638%
Source Step = 23.0481%
Source Step = 23.1324%
vernier = 0.00417137
Source Step = 23.2293%
Source Step = 23.3557%
Source Step = 23.4821%
Source Step = 23.6085%
Source Step = 23.7349%
vernier = 0.00625706
Source Step = 23.8739%
Source Step = 24.0636%
Source Step = 24.2532%
Source Step = 24.4428%
Source Step = 24.6324%
vernier = 0.00938559
Source Step = 24.8315%
vernier = 0.0023464
Source Step = 24.8741%
Source Step = 24.9452%
Source Step = 25.0163%
Source Step = 25.0874%
Source Step = 25.1585%
vernier = 0.00351959
Source Step = 25.2616%
Source Step = 25.3683%
Source Step = 25.4749%
Source Step = 25.5816%
Source Step = 25.6883%
vernier = 0.00527939
Source Step = 25.8376%
Source Step = 25.9976%
Source Step = 26.1575%
Source Step = 26.3175%
Source Step = 26.4775%
vernier = 0.00791909
Source Step = 26.5615%
Source Step = 26.6215%
Source Step = 26.6815%
Source Step = 26.7415%
Source Step = 26.8015%
vernier = 0.00296966
Source Step = 26.8765%
Source Step = 26.9664%
Source Step = 27.0564%
Source Step = 27.1464%
Source Step = 27.2364%
vernier = 0.00445449
Source Step = 27.3444%
Source Step = 27.4794%
Source Step = 27.6144%
Source Step = 27.7494%
Source Step = 27.8843%
vernier = 0.00668173
Source Step = 27.989%
Source Step = 28.0396%
Source Step = 28.0902%
Source Step = 28.1408%
Source Step = 28.1914%
vernier = 0.00250565
Source Step = 28.2446%
Source Step = 28.3205%
Source Step = 28.3964%
Source Step = 28.4724%
Source Step = 28.5483%
Source Step = 28.6242%
vernier = 0.00375847
Source Step = 28.7381%
Source Step = 28.852%
Source Step = 28.9659%
Source Step = 29.0798%
Source Step = 29.1937%
vernier = 0.00563771
Source Step = 29.2392%
Source Step = 29.282%
Source Step = 29.3247%
Source Step = 29.3674%
Source Step = 29.4101%
vernier = 0.00211414
Source Step = 29.4677%
Source Step = 29.5318%
Source Step = 29.5959%
Source Step = 29.6599%
Source Step = 29.724%
vernier = 0.00317121
Source Step = 29.8073%
Source Step = 29.9034%
Source Step = 29.9995%
Source Step = 30.0956%
Source Step = 30.1917%
vernier = 0.00475682
Source Step = 30.2541%
Source Step = 30.2902%
Source Step = 30.3262%
Source Step = 30.3622%
Source Step = 30.3983%
vernier = 0.00178381
Source Step = 30.4397%
Source Step = 30.4938%
Source Step = 30.5478%
Source Step = 30.6019%
Source Step = 30.6559%
vernier = 0.00267571
Source Step = 30.7154%
Source Step = 30.7965%
Source Step = 30.8776%
Source Step = 30.9587%
Source Step = 31.0397%
vernier = 0.00401357
Source Step = 31.1249%
vernier = 0.00100339
Source Step = 31.1431%
Source Step = 31.1735%
Source Step = 31.2039%
Source Step = 31.2343%
Source Step = 31.2647%
vernier = 0.00150509
Source Step = 31.3088%
Source Step = 31.3544%
Source Step = 31.4%
Source Step = 31.4457%
Source Step = 31.4913%
vernier = 0.00225763
Source Step = 31.5551%
Source Step = 31.6235%
Source Step = 31.6919%
Source Step = 31.7604%
Source Step = 31.8288%
vernier = 0.00338645
Source Step = 31.8647%
Source Step = 31.8903%
Source Step = 31.916%
Source Step = 31.9416%
Source Step = 31.9673%
vernier = 0.00126992
Source Step = 31.9994%
Source Step = 32.0379%
Source Step = 32.0763%
Source Step = 32.1148%
Source Step = 32.1533%
vernier = 0.00190488
Source Step = 32.1995%
Source Step = 32.2572%
Source Step = 32.3149%
Source Step = 32.3726%
Source Step = 32.4304%
vernier = 0.00285731
Source Step = 32.4968%
Source Step = 32.5833%
Source Step = 32.6699%
Source Step = 32.7565%
Source Step = 32.8431%
vernier = 0.00428597
Source Step = 32.9156%
Source Step = 32.9481%
Source Step = 32.9805%
Source Step = 33.013%
Source Step = 33.0455%
Source Step = 33.078%
vernier = 0.00160724
Source Step = 33.1267%
Source Step = 33.1754%
Source Step = 33.2241%
Source Step = 33.2728%
Source Step = 33.3215%
vernier = 0.00241086
Source Step = 33.3921%
Source Step = 33.4652%
Source Step = 33.5382%
Source Step = 33.6113%
Source Step = 33.6843%
vernier = 0.00361629
Source Step = 33.7793%
Source Step = 33.8889%
Source Step = 33.9985%
Source Step = 34.1081%
Source Step = 34.2176%
vernier = 0.00542443
Source Step = 34.3546%
Source Step = 34.519%
Source Step = 34.6834%
Source Step = 34.8477%
Source Step = 35.0121%
vernier = 0.00813665
Source Step = 35.2094%
Source Step = 35.4559%
Source Step = 35.7025%
Source Step = 35.9491%
Source Step = 36.1956%
vernier = 0.012205
Source Step = 36.4792%
Source Step = 36.849%
Source Step = 37.2189%
Source Step = 37.5887%
Source Step = 37.9586%
vernier = 0.0183075
Source Step = 38.3654%
Source Step = 38.9202%
Source Step = 39.475%
Source Step = 40.0297%
Source Step = 40.5845%
vernier = 0.0274612
Source Step = 41.167%
vernier = 0.0068653
Source Step = 41.2918%
Source Step = 41.4999%
Source Step = 41.7079%
Source Step = 41.9159%
Source Step = 42.124%
vernier = 0.0102979
Source Step = 42.4256%
Source Step = 42.7377%
Source Step = 43.0498%
Source Step = 43.3618%
Source Step = 43.6739%
vernier = 0.0154469
Source Step = 44.1108%
Source Step = 44.5788%
Source Step = 45.0469%
Source Step = 45.515%
Source Step = 45.9831%
vernier = 0.0231704
Source Step = 46.1455%
Source Step = 46.1894%
Source Step = 46.2332%
Source Step = 46.2771%
Source Step = 46.321%
vernier = 0.00217222
Source Step = 46.3737%
Source Step = 46.4395%
Source Step = 46.5053%
Source Step = 46.5711%
Source Step = 46.637%
vernier = 0.00325833
Source Step = 46.7127%
Source Step = 46.8114%
Source Step = 46.9101%
Source Step = 47.0089%
Source Step = 47.1076%
vernier = 0.0048875
Source Step = 47.2162%
Source Step = 47.3643%
Source Step = 47.5124%
Source Step = 47.6606%
Source Step = 47.8087%
vernier = 0.00733125
Source Step = 47.9642%
Source Step = 48.1863%
Source Step = 48.4085%
Source Step = 48.6306%
Source Step = 48.8528%
Source Step = 49.075%
vernier = 0.0109969
Source Step = 49.4082%
Source Step = 49.7414%
Source Step = 50.0747%
Source Step = 50.4079%
Source Step = 50.7412%
vernier = 0.0164953
Source Step = 50.7963%
Source Step = 50.8276%
Source Step = 50.8588%
Source Step = 50.8901%
Source Step = 50.9213%
vernier = 0.00154644
Source Step = 50.9604%
Source Step = 51.0072%
Source Step = 51.0541%
Source Step = 51.101%
Source Step = 51.1478%
vernier = 0.00231965
Source Step = 51.204%
Source Step = 51.2743%
Source Step = 51.3446%
Source Step = 51.4149%
Source Step = 51.4852%
vernier = 0.00347948
Source Step = 51.5661%
Source Step = 51.6715%
Source Step = 51.7769%
Source Step = 51.8824%
Source Step = 51.9878%
vernier = 0.00521922
Source Step = 52.1038%
Source Step = 52.2619%
Source Step = 52.4201%
Source Step = 52.5783%
Source Step = 52.7364%
vernier = 0.00782883
Source Step = 52.9025%
Source Step = 53.1397%
Source Step = 53.377%
Source Step = 53.6142%
Source Step = 53.8514%
Source Step = 54.0887%
vernier = 0.0117432
Source Step = 54.4445%
Source Step = 54.8004%
Source Step = 55.1562%
Source Step = 55.5121%
Source Step = 55.868%
vernier = 0.0176149
Source Step = 56.3839%
Source Step = 56.9177%
Source Step = 57.4515%
Source Step = 57.9853%
Source Step = 58.5191%
vernier = 0.0264223
Source Step = 59.2664%
Source Step = 60.0671%
Source Step = 60.8677%
Source Step = 61.6684%
Source Step = 62.4691%
vernier = 0.0396335
Source Step = 63.55%
Source Step = 64.751%
Source Step = 65.952%
Source Step = 67.153%
Source Step = 68.3541%
vernier = 0.0594502
Source Step = 69.9154%
Source Step = 71.7169%
Source Step = 73.5184%
Source Step = 75.3199%
Source Step = 77.1215%
vernier = 0.0891753
Source Step = 79.3734%
Source Step = 82.0756%
Source Step = 84.7779%
Source Step = 87.4802%
Source Step = 90.1825%
Source Step = 90.212%
Source Step = 90.2543%
Source Step = 90.2965%
Source Step = 90.3387%
Source Step = 90.3809%
Source Step = 90.4231%
Source Step = 90.4654%
Source Step = 90.5076%
Source Step = 90.5498%
Source Step = 90.592%
Source Step = 90.6343%
Source Step = 90.6765%
Source Step = 90.7187%
Source Step = 90.7609%
vernier = 0.00209005
Source Step = 90.8137%
Source Step = 90.877%
Source Step = 90.9404%
Source Step = 91.0037%
Source Step = 91.0671%
vernier = 0.00313507
Source Step = 91.1431%
Source Step = 91.2381%
Source Step = 91.3331%
Source Step = 91.4281%
Source Step = 91.5231%
vernier = 0.0047026
Source Step = 91.6323%
Source Step = 91.7748%
Source Step = 91.9173%
Source Step = 92.0598%
Source Step = 92.2023%
vernier = 0.0070539
Source Step = 92.3591%
Source Step = 92.5728%
Source Step = 92.7866%
Source Step = 93.0003%
Source Step = 93.2141%
vernier = 0.0105809
Source Step = 93.4385%
Source Step = 93.7592%
Source Step = 94.0798%
Source Step = 94.4004%
Source Step = 94.7211%
Source Step = 95.0417%
vernier = 0.0158713
Source Step = 95.5226%
Source Step = 96.0036%
Source Step = 96.4845%
Source Step = 96.9655%
Source Step = 97.4464%
vernier = 0.0238069
Source Step = 98.1438%
Source Step = 98.8652%
Source Step = 99.5867%
Source stepping succeeded in finding the operating point.

Total elapsed time: 9.188 seconds.

