Circuit: * C:\Users\wolfead\Documents\Power Amp\power_amp.asc

R47: both pins shorted together -- ignoring.
C27: Increased Cpar to 1e-013
C25: Increased Cpar to 4.7e-009
Early termination of direct N-R iteration.
Direct Newton iteration failed to find .op point.  (Use ".option noopiter" to skip.)
Starting Gmin stepping
Gmin = 10
vernier = 0.5
vernier = 0.25
vernier = 0.125
Gmin = 5.6588
vernier = 0.0625
vernier = 0.03125
vernier = 0.015625
Gmin = 5.48561
vernier = 0.0078125
vernier = 0.00390625
vernier = 0.00195313
vernier = 0.000976563
Gmin = 5.49362
vernier = 0.000488281
Gmin = 0
Gmin stepping failed

Starting source stepping with srcstepmethod=0
Source Step = 3.0303%
Source Step = 12.1212%
Source Step = 19.697%
Source Step = 27.2727%
Source Step = 34.8485%
Source Step = 42.4242%
vernier = 0.375
Source Step = 52.6515%
Source Step = 64.0152%
Source Step = 75.3788%
Source Step = 86.7424%
Source Step = 98.1061%
Source stepping succeeded in finding the operating point.


Date: Sun Dec 11 14:54:13 2022
Total elapsed time: 324.263 seconds.

tnom = 27
temp = 27
method = modified trap
totiter = 16293
traniter = 14069
tranpoints = 5015
accept = 3424
rejected = 1591
matrix size = 637
fillins = 29367
solver = Normal
Thread vector: 282.2/105.6[8] 65.3/32.2[8] 74.4/44.0[8] 32.2/19.1[8]  2592/500
Matrix Compiler1: 21.73 MB object code size  8783.9/6355.5/[6070.0]
Matrix Compiler2: 561.08 KB object code size  514.2/268.8/[81.7]

