Circuit: * C:\Users\wolfead\Documents\Power Amp\power_supplies.asc

C3: Increased Cpar to 1e-013
C2: Increased Cpar to 1e-010

Date: Sat Mar 11 17:10:45 2023
Total elapsed time: 0.047 seconds.

tnom = 27
temp = 27
method = trap
totiter = 0
traniter = 0
tranpoints = 0
accept = 0
rejected = 0
matrix size = 3
fillins = 0
solver = Normal

